Version 4
SHEET 1 880 680
WIRE 416 -96 176 -96
WIRE 176 0 176 -96
WIRE 32 16 -32 16
WIRE 128 16 32 16
WIRE -32 96 -32 16
WIRE 176 112 176 96
WIRE 416 112 416 -96
WIRE 176 144 176 112
WIRE 416 224 416 192
WIRE 416 224 368 224
WIRE -32 240 -32 176
WIRE 176 256 176 224
WIRE 176 256 96 256
WIRE 416 256 416 224
WIRE 96 288 96 256
WIRE 176 288 176 256
WIRE 96 384 96 352
WIRE 176 384 176 368
WIRE 176 384 96 384
WIRE 256 384 176 384
WIRE 288 384 256 384
WIRE 368 384 368 224
FLAG -32 240 0
FLAG 416 256 0
FLAG 32 16 vi
FLAG 176 112 vo
FLAG 176 256 vl
FLAG 256 384 vl_minus
SYMBOL res 160 128 R0
SYMATTR InstName R1
SYMATTR Value 1
SYMBOL voltage -32 80 R0
WINDOW 3 -515 105 Left 2
WINDOW 123 0 0 Left 0
WINDOW 39 0 0 Left 0
SYMATTR InstName V1
SYMATTR Value PULSE(0 10 0 0.0001 0.0001 0.1 0.2 2)
SYMBOL voltage 416 96 R0
WINDOW 123 0 0 Left 0
WINDOW 39 0 0 Left 0
SYMATTR InstName V2
SYMATTR Value 10
SYMBOL pmos 128 96 M180
SYMATTR InstName M1
SYMATTR Value IRF7210
SYMBOL ind 160 272 R0
SYMATTR InstName L1
SYMATTR Value 10m
SYMBOL diode 112 352 R180
WINDOW 0 24 64 Left 2
WINDOW 3 24 0 Left 2
SYMATTR InstName D1
SYMBOL res 384 368 R90
WINDOW 0 0 56 VBottom 2
WINDOW 3 32 56 VTop 2
SYMATTR InstName R2
SYMATTR Value 1
TEXT -66 280 Left 2 !.tran 0.4
