Version 4
SHEET 1 880 680
WIRE 96 0 48 0
WIRE 192 0 96 0
WIRE 192 16 192 0
WIRE 48 64 48 0
WIRE 192 112 192 96
WIRE 256 112 192 112
WIRE 304 112 256 112
WIRE 192 128 192 112
WIRE 48 208 48 144
WIRE 144 208 48 208
WIRE 192 208 192 192
WIRE 192 208 144 208
WIRE 144 224 144 208
FLAG 144 224 0
FLAG 96 0 VI
FLAG 256 112 VO
SYMBOL cap 176 128 R0
SYMATTR InstName C1
SYMATTR Value 1e-6
SYMBOL res 176 0 R0
SYMATTR InstName R1
SYMATTR Value 159
SYMBOL voltage 48 48 R0
WINDOW 3 -541 52 Left 2
WINDOW 123 -541 80 Left 2
WINDOW 39 0 0 Left 0
SYMATTR InstName V1
SYMATTR Value PULSE(0 1 0 100e-9 100e-9 90e-6 100e-6)
SYMATTR Value2 AC 1
TEXT -494 248 Left 2 !.tran 5e-3
TEXT -496 216 Left 2 !;ac oct 5e-3 1 100000
