Version 4
SHEET 1 936 680
WIRE 32 16 -32 16
WIRE 176 16 32 16
WIRE 736 16 672 16
WIRE 880 16 736 16
WIRE -32 96 -32 16
WIRE 672 96 672 16
WIRE 176 144 176 16
WIRE 880 144 880 16
WIRE -32 240 -32 176
WIRE 672 240 672 176
WIRE 176 256 176 224
WIRE 880 256 880 224
WIRE 176 288 176 256
WIRE 880 288 880 256
WIRE 176 400 176 368
WIRE 880 400 880 368
FLAG -32 240 0
FLAG 32 16 vi1
FLAG 176 400 0
FLAG 176 256 vo1
FLAG 672 240 0
FLAG 736 16 vi2
FLAG 880 400 0
FLAG 880 256 vo2
SYMBOL res 160 272 R0
SYMATTR InstName R1
SYMATTR Value 1
SYMBOL voltage -32 80 R0
WINDOW 3 -337 109 Left 2
WINDOW 123 0 0 Left 0
WINDOW 39 0 0 Left 0
SYMATTR Value PULSE(0 10 0 1n 1n 100m 200m)
SYMATTR InstName V1
SYMBOL ind 160 128 R0
SYMATTR InstName L1
SYMATTR Value 1
SYMBOL res 864 272 R0
SYMATTR InstName R2
SYMATTR Value 1
SYMBOL voltage 672 80 R0
WINDOW 3 24 44 Left 2
WINDOW 123 0 0 Left 0
WINDOW 39 0 0 Left 0
SYMATTR Value PWL(0 0 1n 5)
SYMATTR InstName V2
SYMBOL ind 864 128 R0
SYMATTR InstName L2
SYMATTR Value 1
TEXT -64 280 Left 2 !.tran 6
